// -*- C++ -*-
// File generated by PyFoam - sorry for the ugliness

FoamFile
{
 version 2.0;
 format ascii;
 class dictionary;
 location "system";
 object simulationParameter;
}

nx 64;

ny 192;

STM RDF; 	// ************************************************************************* //

nz 1;

