/*--------------------------------*- C++ -*----------------------------------*\
| =========                 |                                                 |
| \\      /  F ield         | OpenFOAM: The Open Source CFD Toolbox           |
|  \\    /   O peration     | Version:  plus                                  |
|   \\  /    A nd           | Web:      www.OpenFOAM.com                      |
|    \\/     M anipulation  |                                                 |
\*---------------------------------------------------------------------------*/
FoamFile
{
    version     2.0;
    format      ascii;
    class       dictionary;
    location    "system";
    object      controlDict;
}
// * * * * * * * * * * * * * * * * * * * * * * * * * * * * * * * * * * * * * //

application     compressibleInterFlow;

startFrom       startTime;

startTime       0;

stopAt          endTime;

endTime         0.5;

deltaT          0.0001;

writeControl    adjustableRunTime;

writeInterval   0.01;

purgeWrite      0;

writeFormat     ascii;

writePrecision  8;

writeCompression off;

timeFormat      general;

timePrecision   10;

runTimeModifiable yes;

adjustTimeStep  yes;

maxCo           0.5;
maxAlphaCo      0.5;
maxDeltaT       1;
maxCapillaryNum 1e8;

libs
(
    "libpostProcess.so"
);

functions
{

    surfaces
    {
        type            surfaces;
        libs            ("libsampling.so");
        writeControl    writeTime;

        surfaceFormat   raw;
        fields          (p U T);

        interpolationScheme cell;

        surfaces
        (

            freeSurf
            {
                type            interface;
                interpolate     false;
            }

        );
    }

}


// ************************************************************************* //
