/*--------------------------------*- C++ -*----------------------------------*\
| =========                 |                                                 |
| \\      /  F ield         | OpenFOAM: The Open Source CFD Toolbox           |
|  \\    /   O peration     | Version:  plus                                  |
|   \\  /    A nd           | Web:      www.OpenFOAM.com                      |
|    \\/     M anipulation  |                                                 |
\*---------------------------------------------------------------------------*/
FoamFile
{
    version     2.0;
    format      ascii;
    class       dictionary;
    object      fvSolution;
}
// * * * * * * * * * * * * * * * * * * * * * * * * * * * * * * * * * * * * * //

solvers
{

    h
    {
        solver      smoothSolver;
        smoother    symGaussSeidel;
        tolerance   1e-8;
        relTol      0;
        maxIter     20;
    }

    hFinal
    {
        $h;
        tolerance   1e-8;
        relTol      0;
    }
}

PIMPLE
{
    momentumPredictor   true;
    nOuterCorrectors 1;
    nCorrectors 1;
    nNonOrthogonalCorrectors 0;
}

relaxationFactors
{
    equations
    {
        "h.*"           1;
        "U.*"           1;
    }
}

// ************************************************************************* //
