/*--------------------------------*- C++ -*----------------------------------*\
| =========                 |                                                 |
| \\      /  F ield         | OpenFOAM: The Open Source CFD Toolbox           |
|  \\    /   O peration     | Version:  v1812                                 |
|   \\  /    A nd           | Web:      www.OpenFOAM.com                      |
|    \\/     M anipulation  |                                                 |
\*---------------------------------------------------------------------------*/
FoamFile
{
    version     2.0;
    format      ascii;
    class       dictionary;
    location    "constant";
    object      dynamicMeshDict;
}
// * * * * * * * * * * * * * * * * * * * * * * * * * * * * * * * * * * * * * //

dynamicFvMesh   staticFvMesh; //dynamicRefineFvMesh staticFvMesh;

// How often to refine
refineInterval  1;

// Field to be refinement on
field           interfaceRegion; //interfaceRegion

// Refine field inbetween lower..upper
lowerRefineLevel 0;
upperRefineLevel 100;

// If value < unrefineLevel unrefine
unrefineLevel   100;

// Have slower than 2:1 refinement
nBufferLayers   1;

// Refine cells only up to maxRefinement levels
maxRefinement   2;

// Stop refinement if maxCells reached
maxCells        1500000;

// Flux field and corresponding velocity field. Fluxes on changed
// faces get recalculated by interpolating the velocity. Use 'none'
// on surfaceScalarFields that do not need to be reinterpolated.
correctFluxes
(
    (phi none)
    (nHatf none)
    (rhoPhi none)
    (alphaPhi none)
    (ghf none)
    (phi0 none)
    (dVf_ none)
    (Kf_  none)
    (alphaPhi_ none)
    (acc_ none)
);

// Write the refinement level as a volScalarField
dumpLevel       true;


// ************************************************************************* //
