/*--------------------------------*- C++ -*----------------------------------*\
| =========                 |                                                 |
| \\      /  F ield         | OpenFOAM: The Open Source CFD Toolbox           |
|  \\    /   O peration     | Version:  2.1.1                                 |
|   \\  /    A nd           | Web:      www.OpenFOAM.org                      |
|    \\/     M anipulation  |                                                 |
\*---------------------------------------------------------------------------*/
FoamFile
{
    version     2.0;
    format      ascii;
    class       dictionary;
    location    "constant";
    object      transportProperties;
}
// * * * * * * * * * * * * * * * * * * * * * * * * * * * * * * * * * * * * * //

phases ( phase1 phase2);

phase1
{
    transportModel  Newtonian;
    nu              nu [ 0 2 -1 0 0 0 0 ] 0.01;
    rho             rho [ 1 -3 0 0 0 0 0 ] 1000;
}

phase2
{
    transportModel  Newtonian;
    nu              nu [ 0 2 -1 0 0 0 0 ] 0.1;
    rho             rho [ 1 -3 0 0 0 0 0 ] 1;

}

sigma           sigma [ 1 0 -2 0 0 0 0 ] 1;

surfaceForces
{
  sigma 1;
  surfaceTensionForceModel constantCurvature; //RDF RDFleastSquare fitParaboloid gradAlpha heightFunction
  curv 10;
  accelerationForceModel gravity;
  deltaFunctionModel alphaCSF;
}


// ************************************************************************* //
