/*--------------------------------*- C++ -*----------------------------------*\
| =========                 |                                                 |
| \\      /  F ield         | OpenFOAM: The Open Source CFD Toolbox           |
|  \\    /   O peration     | Version:  plus                                  |
|   \\  /    A nd           | Web:      www.OpenFOAM.com                      |
|    \\/     M anipulation  |                                                 |
\*---------------------------------------------------------------------------*/
FoamFile
{
    version     2.0;
    format      ascii;
    class       volVectorField;
    object      U;
}
// * * * * * * * * * * * * * * * * * * * * * * * * * * * * * * * * * * * * * //

dimensions      [0 1 -1 0 0 0 0];

internalField   uniform (0 0 0);

boundaryField
{
    sideWalls
    {
        type            slip;
        value           uniform (0 0 0);
    }

    faceWall
    {
        type            symmetryPlane;
    }

    axis
    {
        type            empty;
        nFaces 0;
        startFace 22819;
    }

    front
    {
        type            wedge;
    }

    back
    {
        type            wedge;
    }

    outlet
    {
        type            zeroGradient;
    }
}

// ************************************************************************* //
